/*--------------------------------*- C++ -*----------------------------------*\
| =========                 |                                                 |
| \\      /  F ield         | OpenFOAM: The Open Source CFD Toolbox           |
|  \\    /   O peration     | Version:  2506                                  |
|   \\  /    A nd           | Website:  www.openfoam.com                      |
|    \\/     M anipulation  |                                                 |
\*---------------------------------------------------------------------------*/
FoamFile
{
    version     2.0;
    format      ascii;
    arch        "LSB;label=32;scalar=64";
    class       polyBoundaryMesh;
    location    "constant/polyMesh";
    object      boundary;
}
// * * * * * * * * * * * * * * * * * * * * * * * * * * * * * * * * * * * * * //

10
(
    inlet
    {
        type            patch;
        nFaces          0;
        startFace       578102;
    }
    outlet
    {
        type            patch;
        nFaces          506;
        startFace       578102;
    }
    top
    {
        type            patch;
        nFaces          0;
        startFace       578608;
    }
    bottom
    {
        type            patch;
        nFaces          446;
        startFace       578608;
    }
    frontAndBack
    {
        type            empty;
        inGroups        1(empty);
        nFaces          426314;
        startFace       579054;
    }
    airfoil
    {
        type            wall;
        inGroups        1(wall);
        nFaces          0;
        startFace       1005368;
    }
    procBoundary6to1
    {
        type            processor;
        inGroups        1(processor);
        nFaces          309;
        startFace       1005368;
        matchTolerance  0.0001;
        transform       unknown;
        myProcNo        6;
        neighbProcNo    1;
    }
    procBoundary6to4
    {
        type            processor;
        inGroups        1(processor);
        nFaces          94;
        startFace       1005677;
        matchTolerance  0.0001;
        transform       unknown;
        myProcNo        6;
        neighbProcNo    4;
    }
    procBoundary6to5
    {
        type            processor;
        inGroups        1(processor);
        nFaces          113;
        startFace       1005771;
        matchTolerance  0.0001;
        transform       unknown;
        myProcNo        6;
        neighbProcNo    5;
    }
    procBoundary6to7
    {
        type            processor;
        inGroups        1(processor);
        nFaces          1163;
        startFace       1005884;
        matchTolerance  0.0001;
        transform       unknown;
        myProcNo        6;
        neighbProcNo    7;
    }
)

// ************************************************************************* //
