/*--------------------------------*- C++ -*----------------------------------*\
| =========                 |                                                 |
| \\      /  F ield         | OpenFOAM: The Open Source CFD Toolbox           |
|  \\    /   O peration     | Version:  2506                                  |
|   \\  /    A nd           | Website:  www.openfoam.com                      |
|    \\/     M anipulation  |                                                 |
\*---------------------------------------------------------------------------*/
FoamFile
{
    version     2.0;
    format      ascii;
    arch        "LSB;label=32;scalar=64";
    class       polyBoundaryMesh;
    location    "constant/polyMesh";
    object      boundary;
}
// * * * * * * * * * * * * * * * * * * * * * * * * * * * * * * * * * * * * * //

10
(
    inlet
    {
        type            patch;
        nFaces          0;
        startFace       599100;
    }
    outlet
    {
        type            patch;
        nFaces          0;
        startFace       599100;
    }
    top
    {
        type            patch;
        nFaces          365;
        startFace       599100;
    }
    bottom
    {
        type            patch;
        nFaces          0;
        startFace       599465;
    }
    frontAndBack
    {
        type            empty;
        inGroups        1(empty);
        nFaces          384844;
        startFace       599465;
    }
    airfoil
    {
        type            wall;
        inGroups        1(wall);
        nFaces          0;
        startFace       984309;
    }
    procBoundary2to0
    {
        type            processor;
        inGroups        1(processor);
        nFaces          1187;
        startFace       984309;
        matchTolerance  0.0001;
        transform       unknown;
        myProcNo        2;
        neighbProcNo    0;
    }
    procBoundary2to1
    {
        type            processor;
        inGroups        1(processor);
        nFaces          48;
        startFace       985496;
        matchTolerance  0.0001;
        transform       unknown;
        myProcNo        2;
        neighbProcNo    1;
    }
    procBoundary2to3
    {
        type            processor;
        inGroups        1(processor);
        nFaces          745;
        startFace       985544;
        matchTolerance  0.0001;
        transform       unknown;
        myProcNo        2;
        neighbProcNo    3;
    }
    procBoundary2to5
    {
        type            processor;
        inGroups        1(processor);
        nFaces          222;
        startFace       986289;
        matchTolerance  0.0001;
        transform       unknown;
        myProcNo        2;
        neighbProcNo    5;
    }
)

// ************************************************************************* //
