/*--------------------------------*- C++ -*----------------------------------*\
| =========                 |                                                 |
| \\      /  F ield         | OpenFOAM: The Open Source CFD Toolbox           |
|  \\    /   O peration     | Version:  2506                                  |
|   \\  /    A nd           | Website:  www.openfoam.com                      |
|    \\/     M anipulation  |                                                 |
\*---------------------------------------------------------------------------*/
FoamFile
{
    version     2.0;
    format      ascii;
    arch        "LSB;label=32;scalar=64";
    class       polyBoundaryMesh;
    location    "constant/polyMesh";
    object      boundary;
}
// * * * * * * * * * * * * * * * * * * * * * * * * * * * * * * * * * * * * * //

9
(
    inlet
    {
        type            patch;
        nFaces          0;
        startFace       654612;
    }
    outlet
    {
        type            patch;
        nFaces          0;
        startFace       654612;
    }
    top
    {
        type            patch;
        nFaces          0;
        startFace       654612;
    }
    bottom
    {
        type            patch;
        nFaces          0;
        startFace       654612;
    }
    frontAndBack
    {
        type            empty;
        inGroups        1(empty);
        nFaces          269018;
        startFace       654612;
    }
    airfoil
    {
        type            wall;
        inGroups        1(wall);
        nFaces          364;
        startFace       923630;
    }
    procBoundary0to1
    {
        type            processor;
        inGroups        1(processor);
        nFaces          841;
        startFace       923994;
        matchTolerance  0.0001;
        transform       unknown;
        myProcNo        0;
        neighbProcNo    1;
    }
    procBoundary0to2
    {
        type            processor;
        inGroups        1(processor);
        nFaces          1187;
        startFace       924835;
        matchTolerance  0.0001;
        transform       unknown;
        myProcNo        0;
        neighbProcNo    2;
    }
    procBoundary0to5
    {
        type            processor;
        inGroups        1(processor);
        nFaces          650;
        startFace       926022;
        matchTolerance  0.0001;
        transform       unknown;
        myProcNo        0;
        neighbProcNo    5;
    }
)

// ************************************************************************* //
