/*--------------------------------*- C++ -*----------------------------------*\
| =========                 |                                                 |
| \\      /  F ield         | OpenFOAM: The Open Source CFD Toolbox           |
|  \\    /   O peration     | Version:  2506                                  |
|   \\  /    A nd           | Website:  www.openfoam.com                      |
|    \\/     M anipulation  |                                                 |
\*---------------------------------------------------------------------------*/
FoamFile
{
    version     2.0;
    format      ascii;
    arch        "LSB;label=32;scalar=64";
    class       polyBoundaryMesh;
    location    "constant/polyMesh";
    object      boundary;
}
// * * * * * * * * * * * * * * * * * * * * * * * * * * * * * * * * * * * * * //

11
(
    inlet
    {
        type            patch;
        nFaces          0;
        startFace       565216;
    }
    outlet
    {
        type            patch;
        nFaces          334;
        startFace       565216;
    }
    top
    {
        type            patch;
        nFaces          621;
        startFace       565550;
    }
    bottom
    {
        type            patch;
        nFaces          0;
        startFace       566171;
    }
    frontAndBack
    {
        type            empty;
        inGroups        1(empty);
        nFaces          443728;
        startFace       566171;
    }
    airfoil
    {
        type            wall;
        inGroups        1(wall);
        nFaces          1272;
        startFace       1009899;
    }
    procBoundary5to0
    {
        type            processor;
        inGroups        1(processor);
        nFaces          650;
        startFace       1011171;
        matchTolerance  0.0001;
        transform       unknown;
        myProcNo        5;
        neighbProcNo    0;
    }
    procBoundary5to2
    {
        type            processor;
        inGroups        1(processor);
        nFaces          222;
        startFace       1011821;
        matchTolerance  0.0001;
        transform       unknown;
        myProcNo        5;
        neighbProcNo    2;
    }
    procBoundary5to4
    {
        type            processor;
        inGroups        1(processor);
        nFaces          718;
        startFace       1012043;
        matchTolerance  0.0001;
        transform       unknown;
        myProcNo        5;
        neighbProcNo    4;
    }
    procBoundary5to6
    {
        type            processor;
        inGroups        1(processor);
        nFaces          113;
        startFace       1012761;
        matchTolerance  0.0001;
        transform       unknown;
        myProcNo        5;
        neighbProcNo    6;
    }
    procBoundary5to7
    {
        type            processor;
        inGroups        1(processor);
        nFaces          253;
        startFace       1012874;
        matchTolerance  0.0001;
        transform       unknown;
        myProcNo        5;
        neighbProcNo    7;
    }
)

// ************************************************************************* //
