/*--------------------------------*- C++ -*----------------------------------*\
| =========                 |                                                 |
| \\      /  F ield         | OpenFOAM: The Open Source CFD Toolbox           |
|  \\    /   O peration     | Version:  2506                                  |
|   \\  /    A nd           | Website:  www.openfoam.com                      |
|    \\/     M anipulation  |                                                 |
\*---------------------------------------------------------------------------*/
FoamFile
{
    version     2.0;
    format      ascii;
    arch        "LSB;label=32;scalar=64";
    class       polyBoundaryMesh;
    location    "1/polyMesh";
    object      boundary;
}
// * * * * * * * * * * * * * * * * * * * * * * * * * * * * * * * * * * * * * //

6
(
    inlet
    {
        type            patch;
        nFaces          320;
        startFace       266147;
    }
    outlet
    {
        type            patch;
        nFaces          320;
        startFace       266467;
    }
    top
    {
        type            patch;
        nFaces          400;
        startFace       266787;
    }
    bottom
    {
        type            patch;
        nFaces          400;
        startFace       267187;
    }
    frontAndBack
    {
        type            empty;
        inGroups        1(empty);
        nFaces          257978;
        startFace       267587;
    }
    airfoil
    {
        type            wall;
        inGroups        1(wall);
        nFaces          1440;
        startFace       525565;
    }
)

// ************************************************************************* //
