/*--------------------------------*- C++ -*----------------------------------*\
| =========                 |                                                 |
| \\      /  F ield         | OpenFOAM: The Open Source CFD Toolbox           |
|  \\    /   O peration     | Version:  2506                                  |
|   \\  /    A nd           | Website:  www.openfoam.com                      |
|    \\/     M anipulation  |                                                 |
\*---------------------------------------------------------------------------*/
FoamFile
{
    version     2.0;
    format      ascii;
    arch        "LSB;label=32;scalar=64";
    class       polyBoundaryMesh;
    location    "constant/polyMesh";
    object      boundary;
}
// * * * * * * * * * * * * * * * * * * * * * * * * * * * * * * * * * * * * * //

10
(
    inlet
    {
        type            patch;
        nFaces          0;
        startFace       653047;
    }
    outlet
    {
        type            patch;
        nFaces          0;
        startFace       653047;
    }
    top
    {
        type            patch;
        nFaces          0;
        startFace       653047;
    }
    bottom
    {
        type            patch;
        nFaces          0;
        startFace       653047;
    }
    frontAndBack
    {
        type            empty;
        inGroups        1(empty);
        nFaces          263260;
        startFace       653047;
    }
    airfoil
    {
        type            wall;
        inGroups        1(wall);
        nFaces          360;
        startFace       916307;
    }
    procBoundary4to1
    {
        type            processor;
        inGroups        1(processor);
        nFaces          492;
        startFace       916667;
        matchTolerance  0.0001;
        transform       unknown;
        myProcNo        4;
        neighbProcNo    1;
    }
    procBoundary4to5
    {
        type            processor;
        inGroups        1(processor);
        nFaces          718;
        startFace       917159;
        matchTolerance  0.0001;
        transform       unknown;
        myProcNo        4;
        neighbProcNo    5;
    }
    procBoundary4to6
    {
        type            processor;
        inGroups        1(processor);
        nFaces          94;
        startFace       917877;
        matchTolerance  0.0001;
        transform       unknown;
        myProcNo        4;
        neighbProcNo    6;
    }
    procBoundary4to7
    {
        type            processor;
        inGroups        1(processor);
        nFaces          1015;
        startFace       917971;
        matchTolerance  0.0001;
        transform       unknown;
        myProcNo        4;
        neighbProcNo    7;
    }
)

// ************************************************************************* //
