/*--------------------------------*- C++ -*----------------------------------*\
| =========                 |                                                 |
| \\      /  F ield         | OpenFOAM: The Open Source CFD Toolbox           |
|  \\    /   O peration     | Version:  2506                                  |
|   \\  /    A nd           | Website:  www.openfoam.com                      |
|    \\/     M anipulation  |                                                 |
\*---------------------------------------------------------------------------*/
FoamFile
{
    version     2.0;
    format      ascii;
    arch        "LSB;label=32;scalar=64";
    class       extendedFeatureEdgeMesh;
    location    "constant/extendedFeatureEdgeMesh";
    object      airfoil.extendedFeatureEdgeMesh;
}
// * * * * * * * * * * * * * * * * * * * * * * * * * * * * * * * * * * * * * //

// points

192
(
(1 0 0)
(1 0 0.01)
(0.99039 0.00444 0)
(0.99039 0.00444 0.01)
(0.03806 -0.01087 0)
(0.03806 -0.01087 0.01)
(0.99039 0.0031 0)
(0.99039 0.0031 0.01)
(0.98296 0.00763 0)
(0.98296 0.00763 0.01)
(0.97347 0.01129 0)
(0.97347 0.01129 0.01)
(0.96194 0.01529 0)
(0.96194 0.01529 0.01)
(0.94844 0.01968 0)
(0.94844 0.01968 0.01)
(0.93301 0.02428 0)
(0.93301 0.02428 0.01)
(0.91573 0.02923 0)
(0.91573 0.02923 0.01)
(0.89668 0.03437 0)
(0.89668 0.03437 0.01)
(0.87592 0.03985 0)
(0.87592 0.03985 0.01)
(0.85355 0.04548 0)
(0.85355 0.04548 0.01)
(0.82967 0.05138 0)
(0.82967 0.05138 0.01)
(0.80438 0.05733 0)
(0.80438 0.05733 0.01)
(0.77779 0.06344 0)
(0.77779 0.06344 0.01)
(0.75 0.06952 0)
(0.75 0.06952 0.01)
(0.72114 0.07565 0)
(0.72114 0.07565 0.01)
(0.69134 0.08155 0)
(0.69134 0.08155 0.01)
(0.66072 0.08721 0)
(0.66072 0.08721 0.01)
(0.62941 0.09238 0)
(0.62941 0.09238 0.01)
(0.59755 0.09709 0)
(0.59755 0.09709 0.01)
(0.56526 0.10105 0)
(0.56526 0.10105 0.01)
(0.5327 0.1044 0)
(0.5327 0.1044 0.01)
(0.5 0.10692 0)
(0.5 0.10692 0.01)
(0.4673 0.10879 0)
(0.4673 0.10879 0.01)
(0.43474 0.1098 0)
(0.43474 0.1098 0.01)
(0.40245 0.11015 0)
(0.40245 0.11015 0.01)
(0.37059 0.10964 0)
(0.37059 0.10964 0.01)
(0.33928 0.10852 0)
(0.33928 0.10852 0.01)
(0.30866 0.10652 0)
(0.30866 0.10652 0.01)
(0.27886 0.10386 0)
(0.27886 0.10386 0.01)
(0.25 0.10031 0)
(0.25 0.10031 0.01)
(0.22221 0.09614 0)
(0.22221 0.09614 0.01)
(0.19562 0.09121 0)
(0.19562 0.09121 0.01)
(0.17033 0.08583 0)
(0.17033 0.08583 0.01)
(0.14645 0.07979 0)
(0.14645 0.07979 0.01)
(0.12408 0.07342 0)
(0.12408 0.07342 0.01)
(0.10332 0.06652 0)
(0.10332 0.06652 0.01)
(0.08427 0.05944 0)
(0.08427 0.05944 0.01)
(0.06699 0.05204 0)
(0.06699 0.05204 0.01)
(0.05156 0.04463 0)
(0.05156 0.04463 0.01)
(0.03806 0.03741 0)
(0.03806 0.03741 0.01)
(0.02653 0.03048 0)
(0.02653 0.03048 0.01)
(0.01704 0.02346 0)
(0.01704 0.02346 0.01)
(0.00961 0.01683 0)
(0.00961 0.01683 0.01)
(0.00428 0.01064 0)
(0.00428 0.01064 0.01)
(0.00107 0.00544 0)
(0.00107 0.00544 0.01)
(0 0 0)
(0 0 0.01)
(0.00107 -0.00324 0)
(0.00107 -0.00324 0.01)
(0.00428 -0.00624 0)
(0.00428 -0.00624 0.01)
(0.00961 -0.00874 0)
(0.00961 -0.00874 0.01)
(0.01704 -0.01015 0)
(0.01704 -0.01015 0.01)
(0.02653 -0.01079 0)
(0.02653 -0.01079 0.01)
(0.99572 0.00136 0)
(0.99572 0.00136 0.01)
(0.99893 0.00016 0)
(0.99893 0.00016 0.01)
(0.99893 0.00031 0)
(0.99893 0.00031 0.01)
(0.99572 0.00196 0)
(0.99572 0.00196 0.01)
(0.05156 -0.01059 0)
(0.05156 -0.01059 0.01)
(0.06699 -0.00995 0)
(0.06699 -0.00995 0.01)
(0.08427 -0.00904 0)
(0.08427 -0.00904 0.01)
(0.10332 -0.00793 0)
(0.10332 -0.00793 0.01)
(0.12408 -0.00668 0)
(0.12408 -0.00668 0.01)
(0.14645 -0.00524 0)
(0.14645 -0.00524 0.01)
(0.17033 -0.0037 0)
(0.17033 -0.0037 0.01)
(0.19562 -0.00198 0)
(0.19562 -0.00198 0.01)
(0.22221 -0.00015 0)
(0.22221 -0.00015 0.01)
(0.25 0.00185 0)
(0.25 0.00185 0.01)
(0.27886 0.00391 0)
(0.27886 0.00391 0.01)
(0.30866 0.00615 0)
(0.30866 0.00615 0.01)
(0.33928 0.00847 0)
(0.33928 0.00847 0.01)
(0.37059 0.01099 0)
(0.37059 0.01099 0.01)
(0.40245 0.01356 0)
(0.40245 0.01356 0.01)
(0.43474 0.01622 0)
(0.43474 0.01622 0.01)
(0.4673 0.01885 0)
(0.4673 0.01885 0.01)
(0.5 0.02147 0)
(0.5 0.02147 0.01)
(0.5327 0.02391 0)
(0.5327 0.02391 0.01)
(0.56526 0.0261 0)
(0.56526 0.0261 0.01)
(0.59755 0.0279 0)
(0.59755 0.0279 0.01)
(0.62941 0.02936 0)
(0.62941 0.02936 0.01)
(0.66072 0.03037 0)
(0.66072 0.03037 0.01)
(0.69134 0.03099 0)
(0.69134 0.03099 0.01)
(0.72114 0.03117 0)
(0.72114 0.03117 0.01)
(0.75 0.03097 0)
(0.75 0.03097 0.01)
(0.77779 0.03036 0)
(0.77779 0.03036 0.01)
(0.80438 0.02937 0)
(0.80438 0.02937 0.01)
(0.82967 0.02797 0)
(0.82967 0.02797 0.01)
(0.85355 0.02619 0)
(0.85355 0.02619 0.01)
(0.87592 0.02407 0)
(0.87592 0.02407 0.01)
(0.89668 0.02169 0)
(0.89668 0.02169 0.01)
(0.91573 0.01911 0)
(0.91573 0.01911 0.01)
(0.93301 0.01639 0)
(0.93301 0.01639 0.01)
(0.94844 0.01357 0)
(0.94844 0.01357 0.01)
(0.96194 0.01071 0)
(0.96194 0.01071 0.01)
(0.97347 0.0079 0)
(0.97347 0.0079 0.01)
(0.98296 0.00527 0)
(0.98296 0.00527 0.01)
)

// edges

199
(
(1 0)
(2 8)
(9 3)
(8 10)
(11 9)
(10 12)
(13 11)
(12 14)
(15 13)
(14 16)
(17 15)
(16 18)
(19 17)
(18 20)
(21 19)
(20 22)
(23 21)
(22 24)
(25 23)
(24 26)
(27 25)
(26 28)
(29 27)
(28 30)
(31 29)
(30 32)
(33 31)
(32 34)
(35 33)
(34 36)
(37 35)
(36 38)
(39 37)
(38 40)
(41 39)
(40 42)
(43 41)
(42 44)
(45 43)
(44 46)
(47 45)
(46 48)
(49 47)
(48 50)
(51 49)
(50 52)
(53 51)
(52 54)
(55 53)
(54 56)
(57 55)
(56 58)
(59 57)
(58 60)
(61 59)
(60 62)
(63 61)
(62 64)
(65 63)
(64 66)
(67 65)
(66 68)
(69 67)
(68 70)
(71 69)
(70 72)
(73 71)
(72 74)
(75 73)
(74 76)
(77 75)
(76 78)
(79 77)
(78 80)
(81 79)
(80 82)
(83 81)
(82 84)
(85 83)
(84 86)
(87 85)
(86 88)
(89 87)
(88 90)
(91 89)
(90 92)
(93 91)
(92 94)
(95 93)
(94 96)
(97 95)
(96 98)
(99 97)
(98 100)
(101 99)
(100 102)
(103 101)
(102 104)
(105 103)
(104 106)
(107 105)
(106 4)
(5 107)
(6 108)
(109 7)
(108 110)
(111 109)
(110 0)
(1 111)
(0 2)
(0 4)
(0 6)
(3 1)
(5 1)
(7 1)
(0 112)
(113 1)
(112 114)
(115 113)
(114 2)
(3 115)
(4 116)
(117 5)
(116 118)
(119 117)
(118 120)
(121 119)
(120 122)
(123 121)
(122 124)
(125 123)
(124 126)
(127 125)
(126 128)
(129 127)
(128 130)
(131 129)
(130 132)
(133 131)
(132 134)
(135 133)
(134 136)
(137 135)
(136 138)
(139 137)
(138 140)
(141 139)
(140 142)
(143 141)
(142 144)
(145 143)
(144 146)
(147 145)
(146 148)
(149 147)
(148 150)
(151 149)
(150 152)
(153 151)
(152 154)
(155 153)
(154 156)
(157 155)
(156 158)
(159 157)
(158 160)
(161 159)
(160 162)
(163 161)
(162 164)
(165 163)
(164 166)
(167 165)
(166 168)
(169 167)
(168 170)
(171 169)
(170 172)
(173 171)
(172 174)
(175 173)
(174 176)
(177 175)
(176 178)
(179 177)
(178 180)
(181 179)
(180 182)
(183 181)
(182 184)
(185 183)
(184 186)
(187 185)
(186 188)
(189 187)
(188 190)
(191 189)
(190 6)
(7 191)
)

// concaveStart mixedStart nonFeatureStart
0 0 8
// internalStart flatStart openStart multipleStart
115 199 199 199
// normals

380
(
(0.278271 0.960503 -0)
(-0.147885 -0.989005 0)
(0.394516 0.918889 -0)
(0 0 -1)
(0.394516 0.918889 -0)
(0 0 1)
(0.359835 0.933016 -0)
(0 0 -1)
(0.359835 0.933016 -0)
(0 0 1)
(0.327758 0.944762 -0)
(0 0 -1)
(0.327758 0.944762 -0)
(0 0 1)
(0.309246 0.950982 -0)
(0 0 -1)
(0.309246 0.950982 -0)
(0 0 1)
(0.285694 0.958321 -0)
(0 0 -1)
(0.285694 0.958321 -0)
(0 0 1)
(0.275383 0.961335 -0)
(0 0 -1)
(0.275383 0.961335 -0)
(0 0 1)
(0.260501 0.965474 -0)
(0 0 -1)
(0.260501 0.965474 -0)
(0 0 1)
(0.255228 0.966881 -0)
(0 0 -1)
(0.255228 0.966881 -0)
(0 0 1)
(0.244064 0.969759 -0)
(0 0 -1)
(0.244064 0.969759 -0)
(0 0 1)
(0.239856 0.970808 -0)
(0 0 -1)
(0.239856 0.970808 -0)
(0 0 1)
(0.229019 0.973422 -0)
(0 0 -1)
(0.229019 0.973422 -0)
(0 0 1)
(0.223948 0.974601 -0)
(0 0 -1)
(0.223948 0.974601 -0)
(0 0 1)
(0.213728 0.976893 -0)
(0 0 -1)
(0.213728 0.976893 -0)
(0 0 1)
(0.20777 0.978178 -0)
(0 0 -1)
(0.20777 0.978178 -0)
(0 0 1)
(0.194217 0.980959 -0)
(0 0 -1)
(0.194217 0.980959 -0)
(0 0 1)
(0.181767 0.983342 -0)
(0 0 -1)
(0.181767 0.983342 -0)
(0 0 1)
(0.162917 0.98664 -0)
(0 0 -1)
(0.162917 0.98664 -0)
(0 0 1)
(0.146244 0.989248 -0)
(0 0 -1)
(0.146244 0.989248 -0)
(0 0 1)
(0.121727 0.992564 -0)
(0 0 -1)
(0.121727 0.992564 -0)
(0 0 1)
(0.102347 0.994749 -0)
(0 0 -1)
(0.102347 0.994749 -0)
(0 0 1)
(0.0768362 0.997044 -0)
(0 0 -1)
(0.0768362 0.997044 -0)
(0 0 1)
(0.0570935 0.998369 -0)
(0 0 -1)
(0.0570935 0.998369 -0)
(0 0 1)
(0.0310048 0.999519 -0)
(0 0 -1)
(0.0310048 0.999519 -0)
(0 0 1)
(0.0108386 0.999941 -0)
(0 0 -1)
(0.0108386 0.999941 -0)
(0 0 1)
(-0.0160055 0.999872 0)
(0 0 -1)
(-0.0160055 0.999872 0)
(0 0 1)
(-0.0357485 0.999361 0)
(0 0 -1)
(-0.0357485 0.999361 0)
(0 0 1)
(-0.065178 0.997874 0)
(0 0 -1)
(-0.065178 0.997874 0)
(0 0 1)
(-0.0889082 0.99604 0)
(0 0 -1)
(-0.0889082 0.99604 0)
(0 0 1)
(-0.122087 0.992519 0)
(0 0 -1)
(-0.122087 0.992519 0)
(0 0 1)
(-0.148393 0.988929 0)
(0 0 -1)
(-0.148393 0.988929 0)
(0 0 1)
(-0.182301 0.983243 0)
(0 0 -1)
(-0.182301 0.983243 0)
(0 0 1)
(-0.208076 0.978113 0)
(0 0 -1)
(-0.208076 0.978113 0)
(0 0 1)
(-0.245209 0.96947 0)
(0 0 -1)
(-0.245209 0.96947 0)
(0 0 1)
(-0.273869 0.961767 0)
(0 0 -1)
(-0.273869 0.961767 0)
(0 0 1)
(-0.315405 0.948957 0)
(0 0 -1)
(-0.315405 0.948957 0)
(0 0 1)
(-0.348372 0.937356 0)
(0 0 -1)
(-0.348372 0.937356 0)
(0 0 1)
(-0.393663 0.919255 0)
(0 0 -1)
(-0.393663 0.919255 0)
(0 0 1)
(-0.432902 0.901441 0)
(0 0 -1)
(-0.432902 0.901441 0)
(0 0 1)
(-0.471605 0.88181 0)
(0 0 -1)
(-0.471605 0.88181 0)
(0 0 1)
(-0.515152 0.857099 0)
(0 0 -1)
(-0.515152 0.857099 0)
(0 0 1)
(-0.594701 0.803947 0)
(0 0 -1)
(-0.594701 0.803947 0)
(0 0 1)
(-0.665796 0.746134 0)
(0 0 -1)
(-0.665796 0.746134 0)
(0 0 1)
(-0.757786 0.652504 0)
(0 0 -1)
(-0.757786 0.652504 0)
(0 0 1)
(-0.850927 0.525284 0)
(0 0 -1)
(-0.850927 0.525284 0)
(0 0 1)
(-0.9812 0.192993 0)
(0 0 -1)
(-0.9812 0.192993 0)
(0 0 1)
(-0.949559 -0.313589 0)
(-0 0 -1)
(-0.949559 -0.313589 0)
(0 0 1)
(-0.682805 -0.730601 0)
(0 0 -1)
(-0.682805 -0.730601 0)
(0 0 1)
(-0.424652 -0.905357 0)
(0 0 -1)
(-0.424652 -0.905357 0)
(0 0 1)
(-0.186444 -0.982466 0)
(0 0 -1)
(-0.186444 -0.982466 0)
(0 0 1)
(-0.0672865 -0.997734 0)
(0 0 -1)
(-0.0672865 -0.997734 0)
(0 0 1)
(-0.00693831 -0.999976 0)
(0 0 -1)
(-0.00693831 -0.999976 0)
(0 0 1)
(-0.310335 -0.950627 0)
(0 0 -1)
(-0.310335 -0.950627 0)
(0 0 1)
(-0.350169 -0.936687 0)
(0 0 -1)
(-0.350169 -0.936687 0)
(0 0 1)
(-0.147885 -0.989005 0)
(0 0 1)
(0.278271 0.960503 -0)
(0 0 -1)
(0.457166 0.889381 -0)
(0.457166 0.889381 -0)
(0.421859 0.906661 -0)
(0 0 1)
(0.421859 0.906661 -0)
(0 0 -1)
(0.0207363 -0.999785 0)
(0 0 1)
(0.0207363 -0.999785 0)
(0 0 -1)
(0.041442 -0.999141 0)
(0 0 1)
(0.041442 -0.999141 0)
(0 0 -1)
(0.0525892 -0.998616 0)
(0 0 1)
(0.0525892 -0.998616 0)
(0 0 -1)
(0.058169 -0.998307 0)
(0 0 1)
(0.058169 -0.998307 0)
(0 0 -1)
(0.0601031 -0.998192 0)
(0 0 1)
(0.0601031 -0.998192 0)
(0 0 -1)
(0.064239 -0.997935 0)
(0 0 1)
(0.064239 -0.997935 0)
(0 0 -1)
(0.0643554 -0.997927 0)
(0 0 1)
(0.0643554 -0.997927 0)
(0 0 -1)
(0.0678543 -0.997695 0)
(0 0 1)
(0.0678543 -0.997695 0)
(0 0 -1)
(0.0686604 -0.99764 0)
(0 0 1)
(0.0686604 -0.99764 0)
(0 0 -1)
(0.0717827 -0.99742 0)
(0 0 1)
(0.0717827 -0.99742 0)
(-0 0 -1)
(0.0711979 -0.997462 0)
(0 0 1)
(0.0711979 -0.997462 0)
(0 0 -1)
(0.0749563 -0.997187 0)
(0 0 1)
(0.0749563 -0.997187 0)
(0 0 -1)
(0.0755509 -0.997142 0)
(0 0 1)
(0.0755509 -0.997142 0)
(0 0 -1)
(0.0802261 -0.996777 0)
(0 0 1)
(0.0802261 -0.996777 0)
(0 0 -1)
(0.0804042 -0.996762 0)
(0 0 1)
(0.0804042 -0.996762 0)
(0 0 -1)
(0.0821003 -0.996624 0)
(0 0 1)
(0.0821003 -0.996624 0)
(0 0 -1)
(0.0805118 -0.996754 0)
(0 0 1)
(0.0805118 -0.996754 0)
(0 0 -1)
(0.0798663 -0.996806 0)
(0 0 1)
(0.0798663 -0.996806 0)
(0 0 -1)
(0.0744109 -0.997228 0)
(0 0 1)
(0.0744109 -0.997228 0)
(0 0 -1)
(0.0671088 -0.997746 0)
(0 0 1)
(0.0671088 -0.997746 0)
(0 0 -1)
(0.0556584 -0.99845 0)
(0 0 1)
(0.0556584 -0.99845 0)
(0 0 -1)
(0.0457774 -0.998952 0)
(0 0 1)
(0.0457774 -0.998952 0)
(0 0 -1)
(0.0322414 -0.99948 0)
(0 0 1)
(0.0322414 -0.99948 0)
(0 0 -1)
(0.020244 -0.999795 0)
(0 0 1)
(0.020244 -0.999795 0)
(0 0 -1)
(0.00604011 -0.999982 0)
(0 0 1)
(0.00604011 -0.999982 0)
(0 0 -1)
(-0.00692984 -0.999976 0)
(0 0 1)
(-0.00692984 -0.999976 0)
(0 0 -1)
(-0.021945 -0.999759 0)
(0 0 1)
(-0.021945 -0.999759 0)
(0 0 -1)
(-0.0372061 -0.999308 0)
(0 0 1)
(-0.0372061 -0.999308 0)
(0 0 -1)
(-0.0552735 -0.998471 0)
(0 0 1)
(-0.0552735 -0.998471 0)
(0 0 -1)
(-0.0743331 -0.997233 0)
(0 0 1)
(-0.0743331 -0.997233 0)
(0 0 -1)
(-0.0943466 -0.995539 0)
(0 0 1)
(-0.0943466 -0.995539 0)
(0 0 -1)
(-0.113898 -0.993492 0)
(0 0 1)
(-0.113898 -0.993492 0)
(0 0 -1)
(-0.134208 -0.990953 0)
(0 0 1)
(-0.134208 -0.990953 0)
(0 0 -1)
(-0.155493 -0.987837 0)
(0 0 1)
(-0.155493 -0.987837 0)
(0 0 -1)
(-0.179783 -0.983706 0)
(0 0 1)
(-0.179783 -0.983706 0)
(0 0 -1)
(-0.207252 -0.978287 0)
(0 0 1)
(-0.207252 -0.978287 0)
(0 0 -1)
(-0.236782 -0.971563 0)
(0 0 1)
(-0.236782 -0.971563 0)
(0 0 -1)
(-0.267067 -0.963678 0)
(0 0 1)
(-0.267067 -0.963678 0)
(0 0 -1)
(-0.280347 -0.959899 0)
(0 0 1)
(-0.280347 -0.959899 0)
(0 0 -1)
)

// normal volume types

380
(
0
0
0
0
0
0
0
0
0
0
0
0
0
0
0
0
0
0
0
0
0
0
0
0
0
0
0
0
0
0
0
0
0
0
0
0
0
0
0
0
0
0
0
0
0
0
0
0
0
0
0
0
0
0
0
0
0
0
0
0
0
0
0
0
0
0
0
0
0
0
0
0
0
0
0
0
0
0
0
0
0
0
0
0
0
0
0
0
0
0
0
0
0
0
0
0
0
0
0
0
0
0
0
0
0
0
0
0
0
0
0
0
0
0
0
0
0
0
0
0
0
0
0
0
0
0
0
0
0
0
0
0
0
0
0
0
0
0
0
0
0
0
0
0
0
0
0
0
0
0
0
0
0
0
0
0
0
0
0
0
0
0
0
0
0
0
0
0
0
0
0
0
0
0
0
0
0
0
0
0
0
0
0
0
0
0
0
0
0
0
0
0
0
0
0
0
0
0
0
0
0
0
0
0
0
0
0
0
0
0
0
0
0
0
0
0
0
0
0
0
0
0
0
0
0
0
0
0
0
0
0
0
0
0
0
0
0
0
0
0
0
0
0
0
0
0
0
0
0
0
0
0
0
0
0
0
0
0
0
0
0
0
0
0
0
0
0
0
0
0
0
0
0
0
0
0
0
0
0
0
0
0
0
0
0
0
0
0
0
0
0
0
0
0
0
0
0
0
0
0
0
0
0
0
0
0
0
0
0
0
0
0
0
0
0
0
0
0
0
0
0
0
0
0
0
0
0
0
0
0
0
0
0
0
0
0
0
0
0
0
0
0
0
0
0
0
0
0
0
0
0
0
0
0
0
0
0
0
0
0
0
0
0
0
0
0
0
0
0
0
0
0
0
0
0
0
0
0
0
0
)

// normalDirections

199
(
2(1 -1)
2(1 -1)
2(1 -1)
2(1 -1)
2(1 -1)
2(1 -1)
2(1 -1)
2(1 -1)
2(1 -1)
2(1 -1)
2(1 -1)
2(1 -1)
2(1 -1)
2(1 -1)
2(1 -1)
2(1 -1)
2(1 -1)
2(1 -1)
2(1 -1)
2(1 -1)
2(1 -1)
2(1 -1)
2(1 -1)
2(1 -1)
2(1 -1)
2(1 -1)
2(1 -1)
2(1 -1)
2(1 -1)
2(1 -1)
2(1 -1)
2(1 -1)
2(1 -1)
2(1 -1)
2(1 -1)
2(1 -1)
2(1 -1)
2(1 -1)
2(1 -1)
2(1 -1)
2(1 -1)
2(1 -1)
2(1 -1)
2(1 -1)
2(1 -1)
2(1 -1)
2(1 -1)
2(1 -1)
2(1 -1)
2(1 -1)
2(1 -1)
2(1 -1)
2(1 -1)
2(1 -1)
2(1 -1)
2(1 -1)
2(1 -1)
2(1 -1)
2(1 -1)
2(1 -1)
2(1 -1)
2(1 -1)
2(1 -1)
2(1 -1)
2(1 -1)
2(1 -1)
2(1 -1)
2(1 -1)
2(1 -1)
2(1 -1)
2(1 -1)
2(1 -1)
2(1 -1)
2(1 -1)
2(1 -1)
2(1 -1)
2(1 -1)
2(1 -1)
2(1 -1)
2(1 -1)
2(1 -1)
2(1 -1)
2(1 -1)
2(1 -1)
2(1 -1)
2(1 -1)
2(1 -1)
2(1 -1)
2(1 -1)
2(1 -1)
2(1 -1)
2(1 -1)
2(1 -1)
2(1 -1)
2(1 -1)
2(1 -1)
2(1 -1)
2(1 -1)
2(1 -1)
2(1 -1)
2(1 -1)
2(1 -1)
2(1 -1)
2(1 -1)
2(1 -1)
2(1 -1)
2(1 -1)
2(1 -1)
2(1 -1)
2(1 -1)
2(1 -1)
2(1 -1)
2(1 -1)
2(1 -1)
2(1 -1)
2(1 -1)
2(1 -1)
2(1 -1)
2(1 -1)
2(1 -1)
2(1 -1)
2(1 -1)
2(1 -1)
2(1 -1)
2(1 -1)
2(1 -1)
2(1 -1)
2(1 -1)
2(1 -1)
2(1 -1)
2(1 -1)
2(1 -1)
2(1 -1)
2(1 -1)
2(1 -1)
2(1 -1)
2(1 -1)
2(1 -1)
2(1 -1)
2(1 -1)
2(1 -1)
2(1 -1)
2(1 -1)
2(1 -1)
2(1 -1)
2(1 -1)
2(1 -1)
2(1 -1)
2(1 -1)
2(1 -1)
2(1 -1)
2(1 -1)
2(1 -1)
2(1 -1)
2(1 -1)
2(1 -1)
2(1 -1)
2(1 -1)
2(1 -1)
2(1 -1)
2(1 -1)
2(1 -1)
2(1 -1)
2(1 -1)
2(1 -1)
2(1 -1)
2(1 -1)
2(1 -1)
2(1 -1)
2(1 -1)
2(1 -1)
2(1 -1)
2(1 -1)
2(1 -1)
2(1 -1)
2(1 -1)
2(1 -1)
2(1 -1)
2(1 -1)
2(1 -1)
2(1 -1)
2(1 -1)
2(1 -1)
2(1 -1)
2(1 -1)
2(1 -1)
2(1 -1)
2(1 -1)
2(1 -1)
2(1 -1)
2(1 -1)
2(1 -1)
2(1 -1)
2(1 -1)
2(1 -1)
2(1 -1)
2(1 -1)
2(1 -1)
2(1 -1)
)

// edgeNormals

199
(
2(0 1)
2(2 3)
2(4 5)
2(6 7)
2(8 9)
2(10 11)
2(12 13)
2(14 15)
2(16 17)
2(18 19)
2(20 21)
2(22 23)
2(24 25)
2(26 27)
2(28 29)
2(30 31)
2(32 33)
2(34 35)
2(36 37)
2(38 39)
2(40 41)
2(42 43)
2(44 45)
2(46 47)
2(48 49)
2(50 51)
2(52 53)
2(54 55)
2(56 57)
2(58 59)
2(60 61)
2(62 63)
2(64 65)
2(66 67)
2(68 69)
2(70 71)
2(72 73)
2(74 75)
2(76 77)
2(78 79)
2(80 81)
2(82 83)
2(84 85)
2(86 87)
2(88 89)
2(90 91)
2(92 93)
2(94 95)
2(96 97)
2(98 99)
2(100 101)
2(102 103)
2(104 105)
2(106 107)
2(108 109)
2(110 111)
2(112 113)
2(114 115)
2(116 117)
2(118 119)
2(120 121)
2(122 123)
2(124 125)
2(126 127)
2(128 129)
2(130 131)
2(132 133)
2(134 135)
2(136 137)
2(138 139)
2(140 141)
2(142 143)
2(144 145)
2(146 147)
2(148 149)
2(150 151)
2(152 153)
2(154 155)
2(156 157)
2(158 159)
2(160 161)
2(162 163)
2(164 165)
2(166 167)
2(168 169)
2(170 171)
2(172 173)
2(174 175)
2(176 177)
2(178 179)
2(180 181)
2(182 183)
2(184 185)
2(186 187)
2(188 189)
2(190 191)
2(192 193)
2(194 195)
2(196 197)
2(198 199)
2(200 201)
2(202 203)
2(204 205)
2(206 207)
2(208 209)
2(210 211)
2(212 213)
2(214 211)
2(1 213)
2(221 3)
2(203 225)
2(377 207)
2(223 5)
2(205 227)
2(379 209)
2(0 215)
2(216 217)
2(218 215)
2(219 217)
2(220 221)
2(222 223)
2(224 225)
2(226 227)
2(228 229)
2(230 231)
2(232 233)
2(234 235)
2(236 237)
2(238 239)
2(240 241)
2(242 243)
2(244 245)
2(246 247)
2(248 249)
2(250 251)
2(252 253)
2(254 255)
2(256 257)
2(258 259)
2(260 261)
2(262 263)
2(264 265)
2(266 267)
2(268 269)
2(270 271)
2(272 273)
2(274 275)
2(276 277)
2(278 279)
2(280 281)
2(282 283)
2(284 285)
2(286 287)
2(288 289)
2(290 291)
2(292 293)
2(294 295)
2(296 297)
2(298 299)
2(300 301)
2(302 303)
2(304 305)
2(306 307)
2(308 309)
2(310 311)
2(312 313)
2(314 315)
2(316 317)
2(318 319)
2(320 321)
2(322 323)
2(324 325)
2(326 327)
2(328 329)
2(330 331)
2(332 333)
2(334 335)
2(336 337)
2(338 339)
2(340 341)
2(342 343)
2(344 345)
2(346 347)
2(348 349)
2(350 351)
2(352 353)
2(354 355)
2(356 357)
2(358 359)
2(360 361)
2(362 363)
2(364 365)
2(366 367)
2(368 369)
2(370 371)
2(372 373)
2(374 375)
2(376 377)
2(378 379)
)

// featurePointNormals

8
(
4(0 1 211 221)
4(0 1 213 223)
4(2 3 221 220)
4(4 5 223 222)
4(202 203 225 224)
4(204 205 227 226)
4(206 207 377 376)
4(208 209 379 378)
)

// featurePointEdges

8
(
6(0 107 111 110 109 115)
6(116 112 113 114 108 0)
3(1 109 119)
3(2 112 120)
3(121 110 101)
3(122 113 102)
3(103 111 197)
3(104 114 198)
)

// regionEdges
0()


// ************************************************************************* //
