/*--------------------------------*- C++ -*----------------------------------*\
| =========                 |                                                 |
| \\      /  F ield         | OpenFOAM: The Open Source CFD Toolbox           |
|  \\    /   O peration     | Version:  2506                                  |
|   \\  /    A nd           | Website:  www.openfoam.com                      |
|    \\/     M anipulation  |                                                 |
\*---------------------------------------------------------------------------*/
FoamFile
{
    version     2.0;
    format      ascii;
    arch        "LSB;label=32;scalar=64";
    class       polyBoundaryMesh;
    location    "constant/polyMesh";
    object      boundary;
}
// * * * * * * * * * * * * * * * * * * * * * * * * * * * * * * * * * * * * * //

6
(
    inlet
    {
        type            patch;
        nFaces          840;
        startFace       4843477;
    }
    outlet
    {
        type            patch;
        nFaces          840;
        startFace       4844317;
    }
    top
    {
        type            patch;
        nFaces          1200;
        startFace       4845157;
    }
    bottom
    {
        type            patch;
        nFaces          1200;
        startFace       4846357;
    }
    frontAndBack
    {
        type            empty;
        inGroups        1(empty);
        nFaces          2928124;
        startFace       4847557;
    }
    airfoil
    {
        type            wall;
        inGroups        1(wall);
        nFaces          11666;
        startFace       7775681;
    }
)

// ************************************************************************* //
