/*--------------------------------*- C++ -*----------------------------------*\
| =========                 |                                                 |
| \\      /  F ield         | OpenFOAM: The Open Source CFD Toolbox           |
|  \\    /   O peration     | Version:  2506                                  |
|   \\  /    A nd           | Website:  www.openfoam.com                      |
|    \\/     M anipulation  |                                                 |
\*---------------------------------------------------------------------------*/
FoamFile
{
    version     2.0;
    format      ascii;
    arch        "LSB;label=32;scalar=64";
    class       polyBoundaryMesh;
    location    "constant/polyMesh";
    object      boundary;
}
// * * * * * * * * * * * * * * * * * * * * * * * * * * * * * * * * * * * * * //

5
(
    inlet
    {
        type            patch;
        nFaces          320;
        startFace       255280;
    }
    outlet
    {
        type            patch;
        nFaces          320;
        startFace       255600;
    }
    top
    {
        type            patch;
        nFaces          400;
        startFace       255920;
    }
    bottom
    {
        type            patch;
        nFaces          400;
        startFace       256320;
    }
    frontAndBack
    {
        type            empty;
        inGroups        1(empty);
        nFaces          256000;
        startFace       256720;
    }
)

// ************************************************************************* //
