/*--------------------------------*- C++ -*----------------------------------*\
| =========                 |                                                 |
| \\      /  F ield         | OpenFOAM: The Open Source CFD Toolbox           |
|  \\    /   O peration     | Version:  2506                                  |
|   \\  /    A nd           | Website:  www.openfoam.com                      |
|    \\/     M anipulation  |                                                 |
\*---------------------------------------------------------------------------*/
FoamFile
{
    version     2.0;
    format      ascii;
    arch        "LSB;label=32;scalar=64";
    class       featureEdgeMesh;
    location    "constant/triSurface";
    object      airfoil.eMesh;
}
// * * * * * * * * * * * * * * * * * * * * * * * * * * * * * * * * * * * * * //


// points:

400
(
(1 0 0)
(1 0 0.01)
(0.999756 5.2e-05 0)
(0.999756 5.2e-05 0.01)
(0.999023 0.000209 0)
(0.999023 0.000209 0.01)
(0.997802 0.000469 0)
(0.997802 0.000469 0.01)
(0.996095 0.000832 0)
(0.996095 0.000832 0.01)
(0.993903 0.001298 0)
(0.993903 0.001298 0.01)
(0.991228 0.001863 0)
(0.991228 0.001863 0.01)
(0.988072 0.002528 0)
(0.988072 0.002528 0.01)
(0.984438 0.003289 0)
(0.984438 0.003289 0.01)
(0.98033 0.004145 0)
(0.98033 0.004145 0.01)
(0.975752 0.005092 0)
(0.975752 0.005092 0.01)
(0.970707 0.006129 0)
(0.970707 0.006129 0.01)
(0.965201 0.007252 0)
(0.965201 0.007252 0.01)
(0.959238 0.008458 0)
(0.959238 0.008458 0.01)
(0.952825 0.009744 0)
(0.952825 0.009744 0.01)
(0.945966 0.011105 0)
(0.945966 0.011105 0.01)
(0.938669 0.012538 0)
(0.938669 0.012538 0.01)
(0.930941 0.014039 0)
(0.930941 0.014039 0.01)
(0.922788 0.015605 0)
(0.922788 0.015605 0.01)
(0.914218 0.01723 0)
(0.914218 0.01723 0.01)
(0.90524 0.01891 0)
(0.90524 0.01891 0.01)
(0.895862 0.020641 0)
(0.895862 0.020641 0.01)
(0.886092 0.022419 0)
(0.886092 0.022419 0.01)
(0.875941 0.024239 0)
(0.875941 0.024239 0.01)
(0.865417 0.026096 0)
(0.865417 0.026096 0.01)
(0.854532 0.027985 0)
(0.854532 0.027985 0.01)
(0.843294 0.029903 0)
(0.843294 0.029903 0.01)
(0.831716 0.031844 0)
(0.831716 0.031844 0.01)
(0.819807 0.033804 0)
(0.819807 0.033804 0.01)
(0.807581 0.035777 0)
(0.807581 0.035777 0.01)
(0.795047 0.03776 0)
(0.795047 0.03776 0.01)
(0.782219 0.039747 0)
(0.782219 0.039747 0.01)
(0.769109 0.041734 0)
(0.769109 0.041734 0.01)
(0.75573 0.043716 0)
(0.75573 0.043716 0.01)
(0.742094 0.045689 0)
(0.742094 0.045689 0.01)
(0.728216 0.047648 0)
(0.728216 0.047648 0.01)
(0.714107 0.049588 0)
(0.714107 0.049588 0.01)
(0.699783 0.051505 0)
(0.699783 0.051505 0.01)
(0.685258 0.053394 0)
(0.685258 0.053394 0.01)
(0.670545 0.055251 0)
(0.670545 0.055251 0.01)
(0.655659 0.057071 0)
(0.655659 0.057071 0.01)
(0.640614 0.05885 0)
(0.640614 0.05885 0.01)
(0.625426 0.060584 0)
(0.625426 0.060584 0.01)
(0.61011 0.062268 0)
(0.61011 0.062268 0.01)
(0.59468 0.063897 0)
(0.59468 0.063897 0.01)
(0.579153 0.065468 0)
(0.579153 0.065468 0.01)
(0.563542 0.066977 0)
(0.563542 0.066977 0.01)
(0.547865 0.068418 0)
(0.547865 0.068418 0.01)
(0.532136 0.069789 0)
(0.532136 0.069789 0.01)
(0.516372 0.071085 0)
(0.516372 0.071085 0.01)
(0.500587 0.072303 0)
(0.500587 0.072303 0.01)
(0.484799 0.073438 0)
(0.484799 0.073438 0.01)
(0.469022 0.074486 0)
(0.469022 0.074486 0.01)
(0.453273 0.075446 0)
(0.453273 0.075446 0.01)
(0.437567 0.076312 0)
(0.437567 0.076312 0.01)
(0.421921 0.077082 0)
(0.421921 0.077082 0.01)
(0.40635 0.077752 0)
(0.40635 0.077752 0.01)
(0.390796 0.078315 0)
(0.390796 0.078315 0.01)
(0.375297 0.078743 0)
(0.375297 0.078743 0.01)
(0.35992 0.079032 0)
(0.35992 0.079032 0.01)
(0.34468 0.07918 0)
(0.34468 0.07918 0.01)
(0.329594 0.079186 0)
(0.329594 0.079186 0.01)
(0.314678 0.079051 0)
(0.314678 0.079051 0.01)
(0.299948 0.078773 0)
(0.299948 0.078773 0.01)
(0.285418 0.078355 0)
(0.285418 0.078355 0.01)
(0.271106 0.077795 0)
(0.271106 0.077795 0.01)
(0.257025 0.077096 0)
(0.257025 0.077096 0.01)
(0.243191 0.076259 0)
(0.243191 0.076259 0.01)
(0.229618 0.075287 0)
(0.229618 0.075287 0.01)
(0.216321 0.074181 0)
(0.216321 0.074181 0.01)
(0.203313 0.072945 0)
(0.203313 0.072945 0.01)
(0.190609 0.071582 0)
(0.190609 0.071582 0.01)
(0.178222 0.070096 0)
(0.178222 0.070096 0.01)
(0.166164 0.06849 0)
(0.166164 0.06849 0.01)
(0.154449 0.06677 0)
(0.154449 0.06677 0.01)
(0.143089 0.06494 0)
(0.143089 0.06494 0.01)
(0.132094 0.063005 0)
(0.132094 0.063005 0.01)
(0.121477 0.06097 0)
(0.121477 0.06097 0.01)
(0.111248 0.058842 0)
(0.111248 0.058842 0.01)
(0.101418 0.056625 0)
(0.101418 0.056625 0.01)
(0.091996 0.054325 0)
(0.091996 0.054325 0.01)
(0.082992 0.05195 0)
(0.082992 0.05195 0.01)
(0.074415 0.049504 0)
(0.074415 0.049504 0.01)
(0.066273 0.046994 0)
(0.066273 0.046994 0.01)
(0.058573 0.044427 0)
(0.058573 0.044427 0.01)
(0.051324 0.041808 0)
(0.051324 0.041808 0.01)
(0.044532 0.039144 0)
(0.044532 0.039144 0.01)
(0.038203 0.036441 0)
(0.038203 0.036441 0.01)
(0.032343 0.033704 0)
(0.032343 0.033704 0.01)
(0.026958 0.030939 0)
(0.026958 0.030939 0.01)
(0.022051 0.028152 0)
(0.022051 0.028152 0.01)
(0.017628 0.025348 0)
(0.017628 0.025348 0.01)
(0.013692 0.022531 0)
(0.013692 0.022531 0.01)
(0.010245 0.019707 0)
(0.010245 0.019707 0.01)
(0.007292 0.016878 0)
(0.007292 0.016878 0.01)
(0.004833 0.014049 0)
(0.004833 0.014049 0.01)
(0.00287 0.011224 0)
(0.00287 0.011224 0.01)
(0.001405 0.008404 0)
(0.001405 0.008404 0.01)
(0.000439 0.005592 0)
(0.000439 0.005592 0.01)
(-3e-05 0.00279 0)
(-3e-05 0.00279 0.01)
(0 0 0)
(0 0 0.01)
(0.000523 -0.002741 0)
(0.000523 -0.002741 0.01)
(0.001535 -0.005395 0)
(0.001535 -0.005395 0.01)
(0.003033 -0.007961 0)
(0.003033 -0.007961 0.01)
(0.005015 -0.010439 0)
(0.005015 -0.010439 0.01)
(0.007479 -0.012828 0)
(0.007479 -0.012828 0.01)
(0.010421 -0.015126 0)
(0.010421 -0.015126 0.01)
(0.013838 -0.017334 0)
(0.013838 -0.017334 0.01)
(0.017725 -0.019451 0)
(0.017725 -0.019451 0.01)
(0.022078 -0.021476 0)
(0.022078 -0.021476 0.01)
(0.026892 -0.023408 0)
(0.026892 -0.023408 0.01)
(0.032161 -0.025246 0)
(0.032161 -0.025246 0.01)
(0.03788 -0.02699 0)
(0.03788 -0.02699 0.01)
(0.044042 -0.028639 0)
(0.044042 -0.028639 0.01)
(0.050641 -0.030193 0)
(0.050641 -0.030193 0.01)
(0.057669 -0.031651 0)
(0.057669 -0.031651 0.01)
(0.06512 -0.033014 0)
(0.06512 -0.033014 0.01)
(0.072985 -0.03428 0)
(0.072985 -0.03428 0.01)
(0.081257 -0.035451 0)
(0.081257 -0.035451 0.01)
(0.089927 -0.036527 0)
(0.089927 -0.036527 0.01)
(0.098987 -0.037507 0)
(0.098987 -0.037507 0.01)
(0.108427 -0.038392 0)
(0.108427 -0.038392 0.01)
(0.118239 -0.039185 0)
(0.118239 -0.039185 0.01)
(0.128412 -0.039884 0)
(0.128412 -0.039884 0.01)
(0.138937 -0.040493 0)
(0.138937 -0.040493 0.01)
(0.149805 -0.041012 0)
(0.149805 -0.041012 0.01)
(0.161004 -0.041444 0)
(0.161004 -0.041444 0.01)
(0.172524 -0.041791 0)
(0.172524 -0.041791 0.01)
(0.184354 -0.042054 0)
(0.184354 -0.042054 0.01)
(0.196484 -0.042238 0)
(0.196484 -0.042238 0.01)
(0.208902 -0.042343 0)
(0.208902 -0.042343 0.01)
(0.221596 -0.042375 0)
(0.221596 -0.042375 0.01)
(0.234555 -0.042335 0)
(0.234555 -0.042335 0.01)
(0.247768 -0.042228 0)
(0.247768 -0.042228 0.01)
(0.261221 -0.042058 0)
(0.261221 -0.042058 0.01)
(0.274904 -0.041827 0)
(0.274904 -0.041827 0.01)
(0.288802 -0.041541 0)
(0.288802 -0.041541 0.01)
(0.302904 -0.041203 0)
(0.302904 -0.041203 0.01)
(0.317197 -0.040817 0)
(0.317197 -0.040817 0.01)
(0.331668 -0.040389 0)
(0.331668 -0.040389 0.01)
(0.346303 -0.039923 0)
(0.346303 -0.039923 0.01)
(0.361089 -0.039422 0)
(0.361089 -0.039422 0.01)
(0.376013 -0.038892 0)
(0.376013 -0.038892 0.01)
(0.391061 -0.038336 0)
(0.391061 -0.038336 0.01)
(0.406269 -0.037757 0)
(0.406269 -0.037757 0.01)
(0.421645 -0.037134 0)
(0.421645 -0.037134 0.01)
(0.437099 -0.036467 0)
(0.437099 -0.036467 0.01)
(0.452619 -0.035757 0)
(0.452619 -0.035757 0.01)
(0.468187 -0.035009 0)
(0.468187 -0.035009 0.01)
(0.48379 -0.034227 0)
(0.48379 -0.034227 0.01)
(0.499413 -0.033414 0)
(0.499413 -0.033414 0.01)
(0.515039 -0.032573 0)
(0.515039 -0.032573 0.01)
(0.530654 -0.031708 0)
(0.530654 -0.031708 0.01)
(0.546243 -0.030821 0)
(0.546243 -0.030821 0.01)
(0.561791 -0.029917 0)
(0.561791 -0.029917 0.01)
(0.577282 -0.028997 0)
(0.577282 -0.028997 0.01)
(0.592701 -0.028066 0)
(0.592701 -0.028066 0.01)
(0.608033 -0.027125 0)
(0.608033 -0.027125 0.01)
(0.623264 -0.026176 0)
(0.623264 -0.026176 0.01)
(0.638377 -0.025224 0)
(0.638377 -0.025224 0.01)
(0.653358 -0.024269 0)
(0.653358 -0.024269 0.01)
(0.668193 -0.023313 0)
(0.668193 -0.023313 0.01)
(0.682867 -0.02236 0)
(0.682867 -0.02236 0.01)
(0.697364 -0.02141 0)
(0.697364 -0.02141 0.01)
(0.711672 -0.020466 0)
(0.711672 -0.020466 0.01)
(0.725775 -0.019529 0)
(0.725775 -0.019529 0.01)
(0.739659 -0.0186 0)
(0.739659 -0.0186 0.01)
(0.753311 -0.017681 0)
(0.753311 -0.017681 0.01)
(0.766718 -0.016774 0)
(0.766718 -0.016774 0.01)
(0.779864 -0.01588 0)
(0.779864 -0.01588 0.01)
(0.792738 -0.014999 0)
(0.792738 -0.014999 0.01)
(0.805327 -0.014133 0)
(0.805327 -0.014133 0.01)
(0.817617 -0.013284 0)
(0.817617 -0.013284 0.01)
(0.829596 -0.012451 0)
(0.829596 -0.012451 0.01)
(0.841253 -0.011637 0)
(0.841253 -0.011637 0.01)
(0.852575 -0.010842 0)
(0.852575 -0.010842 0.01)
(0.863551 -0.010068 0)
(0.863551 -0.010068 0.01)
(0.87417 -0.009314 0)
(0.87417 -0.009314 0.01)
(0.884421 -0.008583 0)
(0.884421 -0.008583 0.01)
(0.894293 -0.007875 0)
(0.894293 -0.007875 0.01)
(0.903777 -0.007191 0)
(0.903777 -0.007191 0.01)
(0.912862 -0.006532 0)
(0.912862 -0.006532 0.01)
(0.92154 -0.0059 0)
(0.92154 -0.0059 0.01)
(0.929801 -0.005294 0)
(0.929801 -0.005294 0.01)
(0.937637 -0.004717 0)
(0.937637 -0.004717 0.01)
(0.94504 -0.004169 0)
(0.94504 -0.004169 0.01)
(0.952002 -0.00365 0)
(0.952002 -0.00365 0.01)
(0.958516 -0.003163 0)
(0.958516 -0.003163 0.01)
(0.964576 -0.002708 0)
(0.964576 -0.002708 0.01)
(0.970174 -0.002285 0)
(0.970174 -0.002285 0.01)
(0.975305 -0.001896 0)
(0.975305 -0.001896 0.01)
(0.979964 -0.001541 0)
(0.979964 -0.001541 0.01)
(0.984145 -0.001222 0)
(0.984145 -0.001222 0.01)
(0.987845 -0.000938 0)
(0.987845 -0.000938 0.01)
(0.99106 -0.000691 0)
(0.99106 -0.000691 0.01)
(0.993785 -0.000481 0)
(0.993785 -0.000481 0.01)
(0.99602 -0.000308 0)
(0.99602 -0.000308 0.01)
(0.99776 -0.000174 0)
(0.99776 -0.000174 0.01)
(0.999004 -7.7e-05 0)
(0.999004 -7.7e-05 0.01)
(0.999751 -1.9e-05 0)
(0.999751 -1.9e-05 0.01)
)


// edges:

401
(
(1 0)
(0 2)
(3 1)
(2 4)
(5 3)
(4 6)
(7 5)
(6 8)
(9 7)
(8 10)
(11 9)
(10 12)
(13 11)
(12 14)
(15 13)
(14 16)
(17 15)
(16 18)
(19 17)
(18 20)
(21 19)
(20 22)
(23 21)
(22 24)
(25 23)
(24 26)
(27 25)
(26 28)
(29 27)
(28 30)
(31 29)
(30 32)
(33 31)
(32 34)
(35 33)
(34 36)
(37 35)
(36 38)
(39 37)
(38 40)
(41 39)
(40 42)
(43 41)
(42 44)
(45 43)
(44 46)
(47 45)
(46 48)
(49 47)
(48 50)
(51 49)
(50 52)
(53 51)
(52 54)
(55 53)
(54 56)
(57 55)
(56 58)
(59 57)
(58 60)
(61 59)
(60 62)
(63 61)
(62 64)
(65 63)
(64 66)
(67 65)
(66 68)
(69 67)
(68 70)
(71 69)
(70 72)
(73 71)
(72 74)
(75 73)
(74 76)
(77 75)
(76 78)
(79 77)
(78 80)
(81 79)
(80 82)
(83 81)
(82 84)
(85 83)
(84 86)
(87 85)
(86 88)
(89 87)
(88 90)
(91 89)
(90 92)
(93 91)
(92 94)
(95 93)
(94 96)
(97 95)
(96 98)
(99 97)
(98 100)
(101 99)
(100 102)
(103 101)
(102 104)
(105 103)
(104 106)
(107 105)
(106 108)
(109 107)
(108 110)
(111 109)
(110 112)
(113 111)
(112 114)
(115 113)
(114 116)
(117 115)
(116 118)
(119 117)
(118 120)
(121 119)
(120 122)
(123 121)
(122 124)
(125 123)
(124 126)
(127 125)
(126 128)
(129 127)
(128 130)
(131 129)
(130 132)
(133 131)
(132 134)
(135 133)
(134 136)
(137 135)
(136 138)
(139 137)
(138 140)
(141 139)
(140 142)
(143 141)
(142 144)
(145 143)
(144 146)
(147 145)
(146 148)
(149 147)
(148 150)
(151 149)
(150 152)
(153 151)
(152 154)
(155 153)
(154 156)
(157 155)
(156 158)
(159 157)
(158 160)
(161 159)
(160 162)
(163 161)
(162 164)
(165 163)
(164 166)
(167 165)
(166 168)
(169 167)
(168 170)
(171 169)
(170 172)
(173 171)
(172 174)
(175 173)
(174 176)
(177 175)
(176 178)
(179 177)
(178 180)
(181 179)
(180 182)
(183 181)
(182 184)
(185 183)
(184 186)
(187 185)
(186 188)
(189 187)
(188 190)
(191 189)
(190 192)
(193 191)
(192 194)
(195 193)
(194 196)
(197 195)
(196 198)
(199 197)
(198 200)
(201 199)
(200 202)
(203 201)
(202 204)
(205 203)
(204 206)
(207 205)
(206 208)
(209 207)
(208 210)
(211 209)
(210 212)
(213 211)
(212 214)
(215 213)
(214 216)
(217 215)
(216 218)
(219 217)
(218 220)
(221 219)
(220 222)
(223 221)
(222 224)
(225 223)
(224 226)
(227 225)
(226 228)
(229 227)
(228 230)
(231 229)
(230 232)
(233 231)
(232 234)
(235 233)
(234 236)
(237 235)
(236 238)
(239 237)
(238 240)
(241 239)
(240 242)
(243 241)
(242 244)
(245 243)
(244 246)
(247 245)
(246 248)
(249 247)
(248 250)
(251 249)
(250 252)
(253 251)
(252 254)
(255 253)
(254 256)
(257 255)
(256 258)
(259 257)
(258 260)
(261 259)
(260 262)
(263 261)
(262 264)
(265 263)
(264 266)
(267 265)
(266 268)
(269 267)
(268 270)
(271 269)
(270 272)
(273 271)
(272 274)
(275 273)
(274 276)
(277 275)
(276 278)
(279 277)
(278 280)
(281 279)
(280 282)
(283 281)
(282 284)
(285 283)
(284 286)
(287 285)
(286 288)
(289 287)
(288 290)
(291 289)
(290 292)
(293 291)
(292 294)
(295 293)
(294 296)
(297 295)
(296 298)
(299 297)
(298 300)
(301 299)
(300 302)
(303 301)
(302 304)
(305 303)
(304 306)
(307 305)
(306 308)
(309 307)
(308 310)
(311 309)
(310 312)
(313 311)
(312 314)
(315 313)
(314 316)
(317 315)
(316 318)
(319 317)
(318 320)
(321 319)
(320 322)
(323 321)
(322 324)
(325 323)
(324 326)
(327 325)
(326 328)
(329 327)
(328 330)
(331 329)
(330 332)
(333 331)
(332 334)
(335 333)
(334 336)
(337 335)
(336 338)
(339 337)
(338 340)
(341 339)
(340 342)
(343 341)
(342 344)
(345 343)
(344 346)
(347 345)
(346 348)
(349 347)
(348 350)
(351 349)
(350 352)
(353 351)
(352 354)
(355 353)
(354 356)
(357 355)
(356 358)
(359 357)
(358 360)
(361 359)
(360 362)
(363 361)
(362 364)
(365 363)
(364 366)
(367 365)
(366 368)
(369 367)
(368 370)
(371 369)
(370 372)
(373 371)
(372 374)
(375 373)
(374 376)
(377 375)
(376 378)
(379 377)
(378 380)
(381 379)
(380 382)
(383 381)
(382 384)
(385 383)
(384 386)
(387 385)
(386 388)
(389 387)
(388 390)
(391 389)
(390 392)
(393 391)
(392 394)
(395 393)
(394 396)
(397 395)
(396 398)
(399 397)
(398 0)
(1 399)
)

// * * * * * * * * * * * * * * * * * * * * * * * * * * * * * * * * * * * * * //


// ************************************************************************* //
