/*--------------------------------*- C++ -*----------------------------------*\
| =========                 |                                                 |
| \\      /  F ield         | OpenFOAM: The Open Source CFD Toolbox           |
|  \\    /   O peration     | Version:  2506                                  |
|   \\  /    A nd           | Website:  www.openfoam.com                      |
|    \\/     M anipulation  |                                                 |
\*---------------------------------------------------------------------------*/
FoamFile
{
    version     2.0;
    format      ascii;
    arch        "LSB;label=32;scalar=64";
    class       featureEdgeMesh;
    location    "constant/triSurface";
    object      airfoil.eMesh;
}
// * * * * * * * * * * * * * * * * * * * * * * * * * * * * * * * * * * * * * //


// points:

192
(
(1 0 0)
(1 0 0.01)
(0.99039 0.00444 0)
(0.99039 0.00444 0.01)
(0.03806 -0.01087 0)
(0.03806 -0.01087 0.01)
(0.99039 0.0031 0)
(0.99039 0.0031 0.01)
(0.98296 0.00763 0)
(0.98296 0.00763 0.01)
(0.97347 0.01129 0)
(0.97347 0.01129 0.01)
(0.96194 0.01529 0)
(0.96194 0.01529 0.01)
(0.94844 0.01968 0)
(0.94844 0.01968 0.01)
(0.93301 0.02428 0)
(0.93301 0.02428 0.01)
(0.91573 0.02923 0)
(0.91573 0.02923 0.01)
(0.89668 0.03437 0)
(0.89668 0.03437 0.01)
(0.87592 0.03985 0)
(0.87592 0.03985 0.01)
(0.85355 0.04548 0)
(0.85355 0.04548 0.01)
(0.82967 0.05138 0)
(0.82967 0.05138 0.01)
(0.80438 0.05733 0)
(0.80438 0.05733 0.01)
(0.77779 0.06344 0)
(0.77779 0.06344 0.01)
(0.75 0.06952 0)
(0.75 0.06952 0.01)
(0.72114 0.07565 0)
(0.72114 0.07565 0.01)
(0.69134 0.08155 0)
(0.69134 0.08155 0.01)
(0.66072 0.08721 0)
(0.66072 0.08721 0.01)
(0.62941 0.09238 0)
(0.62941 0.09238 0.01)
(0.59755 0.09709 0)
(0.59755 0.09709 0.01)
(0.56526 0.10105 0)
(0.56526 0.10105 0.01)
(0.5327 0.1044 0)
(0.5327 0.1044 0.01)
(0.5 0.10692 0)
(0.5 0.10692 0.01)
(0.4673 0.10879 0)
(0.4673 0.10879 0.01)
(0.43474 0.1098 0)
(0.43474 0.1098 0.01)
(0.40245 0.11015 0)
(0.40245 0.11015 0.01)
(0.37059 0.10964 0)
(0.37059 0.10964 0.01)
(0.33928 0.10852 0)
(0.33928 0.10852 0.01)
(0.30866 0.10652 0)
(0.30866 0.10652 0.01)
(0.27886 0.10386 0)
(0.27886 0.10386 0.01)
(0.25 0.10031 0)
(0.25 0.10031 0.01)
(0.22221 0.09614 0)
(0.22221 0.09614 0.01)
(0.19562 0.09121 0)
(0.19562 0.09121 0.01)
(0.17033 0.08583 0)
(0.17033 0.08583 0.01)
(0.14645 0.07979 0)
(0.14645 0.07979 0.01)
(0.12408 0.07342 0)
(0.12408 0.07342 0.01)
(0.10332 0.06652 0)
(0.10332 0.06652 0.01)
(0.08427 0.05944 0)
(0.08427 0.05944 0.01)
(0.06699 0.05204 0)
(0.06699 0.05204 0.01)
(0.05156 0.04463 0)
(0.05156 0.04463 0.01)
(0.03806 0.03741 0)
(0.03806 0.03741 0.01)
(0.02653 0.03048 0)
(0.02653 0.03048 0.01)
(0.01704 0.02346 0)
(0.01704 0.02346 0.01)
(0.00961 0.01683 0)
(0.00961 0.01683 0.01)
(0.00428 0.01064 0)
(0.00428 0.01064 0.01)
(0.00107 0.00544 0)
(0.00107 0.00544 0.01)
(0 0 0)
(0 0 0.01)
(0.00107 -0.00324 0)
(0.00107 -0.00324 0.01)
(0.00428 -0.00624 0)
(0.00428 -0.00624 0.01)
(0.00961 -0.00874 0)
(0.00961 -0.00874 0.01)
(0.01704 -0.01015 0)
(0.01704 -0.01015 0.01)
(0.02653 -0.01079 0)
(0.02653 -0.01079 0.01)
(0.99572 0.00136 0)
(0.99572 0.00136 0.01)
(0.99893 0.00016 0)
(0.99893 0.00016 0.01)
(0.99893 0.00031 0)
(0.99893 0.00031 0.01)
(0.99572 0.00196 0)
(0.99572 0.00196 0.01)
(0.05156 -0.01059 0)
(0.05156 -0.01059 0.01)
(0.06699 -0.00995 0)
(0.06699 -0.00995 0.01)
(0.08427 -0.00904 0)
(0.08427 -0.00904 0.01)
(0.10332 -0.00793 0)
(0.10332 -0.00793 0.01)
(0.12408 -0.00668 0)
(0.12408 -0.00668 0.01)
(0.14645 -0.00524 0)
(0.14645 -0.00524 0.01)
(0.17033 -0.0037 0)
(0.17033 -0.0037 0.01)
(0.19562 -0.00198 0)
(0.19562 -0.00198 0.01)
(0.22221 -0.00015 0)
(0.22221 -0.00015 0.01)
(0.25 0.00185 0)
(0.25 0.00185 0.01)
(0.27886 0.00391 0)
(0.27886 0.00391 0.01)
(0.30866 0.00615 0)
(0.30866 0.00615 0.01)
(0.33928 0.00847 0)
(0.33928 0.00847 0.01)
(0.37059 0.01099 0)
(0.37059 0.01099 0.01)
(0.40245 0.01356 0)
(0.40245 0.01356 0.01)
(0.43474 0.01622 0)
(0.43474 0.01622 0.01)
(0.4673 0.01885 0)
(0.4673 0.01885 0.01)
(0.5 0.02147 0)
(0.5 0.02147 0.01)
(0.5327 0.02391 0)
(0.5327 0.02391 0.01)
(0.56526 0.0261 0)
(0.56526 0.0261 0.01)
(0.59755 0.0279 0)
(0.59755 0.0279 0.01)
(0.62941 0.02936 0)
(0.62941 0.02936 0.01)
(0.66072 0.03037 0)
(0.66072 0.03037 0.01)
(0.69134 0.03099 0)
(0.69134 0.03099 0.01)
(0.72114 0.03117 0)
(0.72114 0.03117 0.01)
(0.75 0.03097 0)
(0.75 0.03097 0.01)
(0.77779 0.03036 0)
(0.77779 0.03036 0.01)
(0.80438 0.02937 0)
(0.80438 0.02937 0.01)
(0.82967 0.02797 0)
(0.82967 0.02797 0.01)
(0.85355 0.02619 0)
(0.85355 0.02619 0.01)
(0.87592 0.02407 0)
(0.87592 0.02407 0.01)
(0.89668 0.02169 0)
(0.89668 0.02169 0.01)
(0.91573 0.01911 0)
(0.91573 0.01911 0.01)
(0.93301 0.01639 0)
(0.93301 0.01639 0.01)
(0.94844 0.01357 0)
(0.94844 0.01357 0.01)
(0.96194 0.01071 0)
(0.96194 0.01071 0.01)
(0.97347 0.0079 0)
(0.97347 0.0079 0.01)
(0.98296 0.00527 0)
(0.98296 0.00527 0.01)
)


// edges:

199
(
(1 0)
(2 8)
(9 3)
(8 10)
(11 9)
(10 12)
(13 11)
(12 14)
(15 13)
(14 16)
(17 15)
(16 18)
(19 17)
(18 20)
(21 19)
(20 22)
(23 21)
(22 24)
(25 23)
(24 26)
(27 25)
(26 28)
(29 27)
(28 30)
(31 29)
(30 32)
(33 31)
(32 34)
(35 33)
(34 36)
(37 35)
(36 38)
(39 37)
(38 40)
(41 39)
(40 42)
(43 41)
(42 44)
(45 43)
(44 46)
(47 45)
(46 48)
(49 47)
(48 50)
(51 49)
(50 52)
(53 51)
(52 54)
(55 53)
(54 56)
(57 55)
(56 58)
(59 57)
(58 60)
(61 59)
(60 62)
(63 61)
(62 64)
(65 63)
(64 66)
(67 65)
(66 68)
(69 67)
(68 70)
(71 69)
(70 72)
(73 71)
(72 74)
(75 73)
(74 76)
(77 75)
(76 78)
(79 77)
(78 80)
(81 79)
(80 82)
(83 81)
(82 84)
(85 83)
(84 86)
(87 85)
(86 88)
(89 87)
(88 90)
(91 89)
(90 92)
(93 91)
(92 94)
(95 93)
(94 96)
(97 95)
(96 98)
(99 97)
(98 100)
(101 99)
(100 102)
(103 101)
(102 104)
(105 103)
(104 106)
(107 105)
(106 4)
(5 107)
(6 108)
(109 7)
(108 110)
(111 109)
(110 0)
(1 111)
(0 2)
(0 4)
(0 6)
(3 1)
(5 1)
(7 1)
(0 112)
(113 1)
(112 114)
(115 113)
(114 2)
(3 115)
(4 116)
(117 5)
(116 118)
(119 117)
(118 120)
(121 119)
(120 122)
(123 121)
(122 124)
(125 123)
(124 126)
(127 125)
(126 128)
(129 127)
(128 130)
(131 129)
(130 132)
(133 131)
(132 134)
(135 133)
(134 136)
(137 135)
(136 138)
(139 137)
(138 140)
(141 139)
(140 142)
(143 141)
(142 144)
(145 143)
(144 146)
(147 145)
(146 148)
(149 147)
(148 150)
(151 149)
(150 152)
(153 151)
(152 154)
(155 153)
(154 156)
(157 155)
(156 158)
(159 157)
(158 160)
(161 159)
(160 162)
(163 161)
(162 164)
(165 163)
(164 166)
(167 165)
(166 168)
(169 167)
(168 170)
(171 169)
(170 172)
(173 171)
(172 174)
(175 173)
(174 176)
(177 175)
(176 178)
(179 177)
(178 180)
(181 179)
(180 182)
(183 181)
(182 184)
(185 183)
(184 186)
(187 185)
(186 188)
(189 187)
(188 190)
(191 189)
(190 6)
(7 191)
)

// * * * * * * * * * * * * * * * * * * * * * * * * * * * * * * * * * * * * * //


// ************************************************************************* //
