FoamFile
{
    version     2.0;
    format      ascii;
    class       volScalarField;
    object      epsilon;
}

dimensions      [0 2 -3 0 0 0 0];
internalField   uniform 0.206676;

boundaryField
{
    inlet
    {
        type            fixedValue;
        value           uniform 0.206676;
    }
    
    outlet
    {
        type            zeroGradient;
    }
    
    top
    {
        type            slip;
    }
    
    bottom
    {
        type            slip;
    }
    
    airfoil
    {
        type            epsilonWallFunction;
        value           uniform 0.206676;
    }
    
    frontAndBack
    {
        type            empty;
    }
}
