FoamFile
{
    version     2.0;
    format      ascii;
    class       volScalarField;
    object      k;
}

dimensions      [0 2 -2 0 0 0 0];
internalField   uniform 0.375000;

boundaryField
{
    inlet
    {
        type            fixedValue;
        value           uniform 0.375000;
    }
    
    outlet
    {
        type            zeroGradient;
    }
    
    top
    {
        type            slip;
    }
    
    bottom
    {
        type            slip;
    }
    
    airfoil
    {
        type            kqRWallFunction;
        value           uniform 0.375000;
    }
    
    frontAndBack
    {
        type            empty;
    }
}
