FoamFile
{
    version     2.0;
    format      ascii;
    class       volScalarField;
    object      nut;
}

dimensions      [0 2 -1 0 0 0 0];
internalField   uniform 2.145000e-06;

boundaryField
{
    inlet
    {
        type            calculated;
        value           uniform 2.145000e-06;
    }
    
    outlet
    {
        type            calculated;
        value           uniform 2.145000e-06;
    }
    
    top
    {
        type            calculated;
        value           uniform 2.145000e-06;
    }
    
    bottom
    {
        type            calculated;
        value           uniform 2.145000e-06;
    }
    
    airfoil
    {
        type            fixedValue;
        value           uniform 0;
    }
    
    frontAndBack
    {
        type            empty;
    }
}
