FoamFile
{
    version     2.0;
    format      ascii;
    class       volScalarField;
    object      nut;
}

dimensions      [0 2 -1 0 0 0 0];
internalField   uniform 6.123724e-02;

boundaryField
{
    inlet
    {
        type            calculated;
        value           uniform 6.123724e-02;
    }
    
    outlet
    {
        type            calculated;
        value           uniform 6.123724e-02;
    }
    
    top
    {
        type            calculated;
        value           uniform 6.123724e-02;
    }
    
    bottom
    {
        type            calculated;
        value           uniform 6.123724e-02;
    }
    
    airfoil
    {
        type            nutkWallFunction;
        value           uniform 6.123724e-02;
    }
    
    frontAndBack
    {
        type            empty;
    }
}
