FoamFile
{
    version     2.0;
    format      ascii;
    class       volVectorField;
    object      U;
}

dimensions      [0 1 -1 0 0 0 0];
internalField   uniform (9.961946980917455 0.8715574274765816 0);

boundaryField
{
    inlet
    {
        type            fixedValue;
        value           uniform (9.961946980917455 0.8715574274765816 0);
    }
    
    outlet
    {
        type            zeroGradient;
    }
    
    top
    {
        type            slip;
    }
    
    bottom
    {
        type            slip;
    }
    
    airfoil
    {
        type            noSlip;
    }
    
    frontAndBack
    {
        type            empty;
    }
}
