FoamFile
{
    version     2.0;
    format      ascii;
    class       dictionary;
    object      snappyHexMeshDict;
}
castellatedMesh true;
snap            true;
addLayers       false;

geometry
{
    airfoil.stl
    {
        type triSurfaceMesh;
        name airfoil;
    }
}

castellatedMeshControls
{
    maxLocalCells       200000;
    maxGlobalCells      400000;
    minRefinementCells  10;
    nCellsBetweenLevels 2;

    features
    (
        {
            file "airfoil.eMesh";
            level 2;
        }
    );

    refinementSurfaces
    {
        airfoil
        {
            level (2 2);
            patchInfo
            {
                type wall;
            }
        }
    }

    refinementRegions
    {
    }

    resolveFeatureAngle 30;
    locationInMesh      (0 0.5 0.005);
    allowFreeStandingZoneFaces true;
}

snapControls
{
    nSmoothPatch 3;
    tolerance    2.0;
    nSolveIter   30;
    nRelaxIter   5;
    nFeatureSnapIter 10;
    explicitFeatureSnap    false;
    implicitFeatureSnap    true;
}

addLayersControls
{
    relativeSizes true;
    layers
    {
    }
}

meshQualityControls
{
    maxNonOrtho          65;
    maxBoundarySkewness  20;
    maxInternalSkewness  4;
    maxConcave           80;
    minVol               1e-13;
    minTetQuality        1e-15;
    minArea              -1;
    minTwist             0.02;
    minDeterminant       0.001;
    minFaceWeight        0.05;
    minVolRatio          0.01;
    minTriangleTwist     -1;
    nSmoothScale         4;
    errorReduction       0.75;
}

debug          0;
mergeTolerance 1e-6;
