/*--------------------------------*- C++ -*----------------------------------*\
| =========                 |                                                 |
| \\      /  F ield         | OpenFOAM: The Open Source CFD Toolbox           |
|  \\    /   O peration     | Version:  2506                                  |
|   \\  /    A nd           | Website:  www.openfoam.com                      |
|    \\/     M anipulation  |                                                 |
\*---------------------------------------------------------------------------*/
FoamFile
{
    version     2.0;
    format      ascii;
    arch        "LSB;label=32;scalar=64";
    class       polyBoundaryMesh;
    location    "constant/polyMesh";
    object      boundary;
}
// * * * * * * * * * * * * * * * * * * * * * * * * * * * * * * * * * * * * * //

8
(
    inlet
    {
        type            patch;
        nFaces          840;
        startFace       524980;
    }
    outlet
    {
        type            patch;
        nFaces          0;
        startFace       525820;
    }
    top
    {
        type            patch;
        nFaces          214;
        startFace       525820;
    }
    bottom
    {
        type            patch;
        nFaces          411;
        startFace       526034;
    }
    frontAndBack
    {
        type            empty;
        inGroups        1(empty);
        nFaces          526232;
        startFace       526445;
    }
    airfoil
    {
        type            wall;
        inGroups        1(wall);
        nFaces          0;
        startFace       1052677;
    }
    procBoundary3to1
    {
        type            processor;
        inGroups        1(processor);
        nFaces          294;
        startFace       1052677;
        matchTolerance  0.0001;
        transform       unknown;
        myProcNo        3;
        neighbProcNo    1;
    }
    procBoundary3to2
    {
        type            processor;
        inGroups        1(processor);
        nFaces          745;
        startFace       1052971;
        matchTolerance  0.0001;
        transform       unknown;
        myProcNo        3;
        neighbProcNo    2;
    }
)

// ************************************************************************* //
