/*--------------------------------*- C++ -*----------------------------------*\
| =========                 |                                                 |
| \\      /  F ield         | OpenFOAM: The Open Source CFD Toolbox           |
|  \\    /   O peration     | Version:  2506                                  |
|   \\  /    A nd           | Website:  www.openfoam.com                      |
|    \\/     M anipulation  |                                                 |
\*---------------------------------------------------------------------------*/
FoamFile
{
    version     2.0;
    format      ascii;
    arch        "LSB;label=32;scalar=64";
    class       polyBoundaryMesh;
    location    "constant/polyMesh";
    object      boundary;
}
// * * * * * * * * * * * * * * * * * * * * * * * * * * * * * * * * * * * * * //

9
(
    inlet
    {
        type            patch;
        nFaces          0;
        startFace       651573;
    }
    outlet
    {
        type            patch;
        nFaces          0;
        startFace       651573;
    }
    top
    {
        type            patch;
        nFaces          0;
        startFace       651573;
    }
    bottom
    {
        type            patch;
        nFaces          0;
        startFace       651573;
    }
    frontAndBack
    {
        type            empty;
        inGroups        1(empty);
        nFaces          265034;
        startFace       651573;
    }
    airfoil
    {
        type            wall;
        inGroups        1(wall);
        nFaces          0;
        startFace       916607;
    }
    procBoundary7to4
    {
        type            processor;
        inGroups        1(processor);
        nFaces          1015;
        startFace       916607;
        matchTolerance  0.0001;
        transform       unknown;
        myProcNo        7;
        neighbProcNo    4;
    }
    procBoundary7to5
    {
        type            processor;
        inGroups        1(processor);
        nFaces          253;
        startFace       917622;
        matchTolerance  0.0001;
        transform       unknown;
        myProcNo        7;
        neighbProcNo    5;
    }
    procBoundary7to6
    {
        type            processor;
        inGroups        1(processor);
        nFaces          1163;
        startFace       917875;
        matchTolerance  0.0001;
        transform       unknown;
        myProcNo        7;
        neighbProcNo    6;
    }
)

// ************************************************************************* //
