/*--------------------------------*- C++ -*----------------------------------*\
| =========                 |                                                 |
| \\      /  F ield         | OpenFOAM: The Open Source CFD Toolbox           |
|  \\    /   O peration     | Version:  2506                                  |
|   \\  /    A nd           | Website:  www.openfoam.com                      |
|    \\/     M anipulation  |                                                 |
\*---------------------------------------------------------------------------*/
FoamFile
{
    version     2.0;
    format      ascii;
    arch        "LSB;label=32;scalar=64";
    class       polyBoundaryMesh;
    location    "constant/polyMesh";
    object      boundary;
}
// * * * * * * * * * * * * * * * * * * * * * * * * * * * * * * * * * * * * * //

11
(
    inlet
    {
        type            patch;
        nFaces          0;
        startFace       608703;
    }
    outlet
    {
        type            patch;
        nFaces          0;
        startFace       608703;
    }
    top
    {
        type            patch;
        nFaces          0;
        startFace       608703;
    }
    bottom
    {
        type            patch;
        nFaces          343;
        startFace       608703;
    }
    frontAndBack
    {
        type            empty;
        inGroups        1(empty);
        nFaces          349694;
        startFace       609046;
    }
    airfoil
    {
        type            wall;
        inGroups        1(wall);
        nFaces          9670;
        startFace       958740;
    }
    procBoundary1to0
    {
        type            processor;
        inGroups        1(processor);
        nFaces          841;
        startFace       968410;
        matchTolerance  0.0001;
        transform       unknown;
        myProcNo        1;
        neighbProcNo    0;
    }
    procBoundary1to2
    {
        type            processor;
        inGroups        1(processor);
        nFaces          48;
        startFace       969251;
        matchTolerance  0.0001;
        transform       unknown;
        myProcNo        1;
        neighbProcNo    2;
    }
    procBoundary1to3
    {
        type            processor;
        inGroups        1(processor);
        nFaces          294;
        startFace       969299;
        matchTolerance  0.0001;
        transform       unknown;
        myProcNo        1;
        neighbProcNo    3;
    }
    procBoundary1to4
    {
        type            processor;
        inGroups        1(processor);
        nFaces          492;
        startFace       969593;
        matchTolerance  0.0001;
        transform       unknown;
        myProcNo        1;
        neighbProcNo    4;
    }
    procBoundary1to6
    {
        type            processor;
        inGroups        1(processor);
        nFaces          309;
        startFace       970085;
        matchTolerance  0.0001;
        transform       unknown;
        myProcNo        1;
        neighbProcNo    6;
    }
)

// ************************************************************************* //
